! BESTEST Case 600.idf
! Basic file description: BESTEST Low-Mass building loads test.
! Author:   R. H. Henninger,  GARD Analytics, Inc.
! Date:     March 17, 2000
! Run:      Annual run for Golden, CO location
! Building: Fictional 1 zone building with resistive walls and window.
!           200 watt constant internal load, 0.5 ACH Infiltration
!           20C heating, 27C cooling
! Internal: None.
! System:   None.
! Plant:    None.
! Modified:

  VERSION,22.1;

  Site:Location,
    GOLDEN COLORADO,         !- Name
    39.80,                   !- Latitude {deg}
    -104.90,                 !- Longitude {deg}
    -7.000000,               !- Time Zone {hr}
    1609.0;                  !- Elevation {m}

  RunPeriod,
    RUNPERIOD 1,             !- Name
    1,                       !- Begin Month
    1,                       !- Begin Day of Month
    ,                        !- Begin Year
    12,                      !- End Month
    31,                      !- End Day of Month
    ,                        !- End Year
    ,                        !- Day of Week for Start Day
    ,                        !- Use Weather File Holidays and Special Days
    ,                        !- Use Weather File Daylight Saving Period
    ,                        !- Apply Weekend Holiday Rule
    ,                        !- Use Weather File Rain Indicators
    ,                        !- Use Weather File Snow Indicators
    ;                        !- Treat Weather as Actual

! DesignDay,
!   DENVER CONSTANT WINTER-NOSUN,     ! Design Day Name
!     -17.22222    ,     ! Max Dry-Bulb {C}
!     0.0000000E+00,     ! Daily Temp Range {C}
!     -17.22222    ,     ! Wet-Bulb at Max {C}
!      83442.47    ,     ! Barometric Pressure {N/M**2}
!      4.115816    ,     ! Wind Speed {M/Sec}
!      169.0000    ,     ! Wind Direction {Degrees N=0, S=180}
!     0.0000000E+00,     ! Clearness {0.0 to 1.1}
!                 0,     ! Rain {0-no,1-yes}
!                 0,     ! Snow on ground {0-no,1-yes}
!                21,     ! Day of Month
!                 1,     ! Month
!            Monday,     ! Day Type
!                 0;     ! Daylight Savings Time Indicator
!
! DesignDay,
!  DENVER CONSTANT SUMMER-NOSUN,     ! Design Day Name
!     32.77778    ,     ! Max Dry-Bulb {C}
!     0.000000    ,     ! Daily Temp Range {C}
!     15.00000    ,     ! Wet-Bulb at Max {C}
!     84139.90    ,     ! Barometric Pressure {N/M**2}
!     3.971544    ,     ! Wind Speed {M/Sec}
!     146.0000    ,     ! Wind Direction {Degrees N=0, S=180}
!     0.0000      ,     ! Clearness {0.0 to 1.1}
!                0,     ! Rain {0-no,1-yes}
!                0,     ! Snow on ground {0-no,1-yes}
!               21,     ! Day of Month
!                7,     ! Month
!           Monday,     ! Day Type
!                0;     ! Daylight Savings Time Indicator

  Material,
    PLASTERBOARD-1,          !- Name
    Rough,                   !- Roughness
    0.01200,                 !- Thickness {m}
    0.16000,                 !- Conductivity {W/m-K}
    950.000,                 !- Density {kg/m3}
    840.00,                  !- Specific Heat {J/kg-K}
    0.9000000,               !- Thermal Absorptance
    0.600000,                !- Solar Absorptance
    0.600000;                !- Visible Absorptance

  Material,
    FIBERGLASS QUILT-1,      !- Name
    Rough,                   !- Roughness
    0.066,                   !- Thickness {m}
    0.040,                   !- Conductivity {W/m-K}
    12.000,                  !- Density {kg/m3}
    840.00,                  !- Specific Heat {J/kg-K}
    0.9000000,               !- Thermal Absorptance
    0.600000,                !- Solar Absorptance
    0.600000;                !- Visible Absorptance

  Material,
    WOOD SIDING-1,           !- Name
    Rough,                   !- Roughness
    0.00900,                 !- Thickness {m}
    0.14000,                 !- Conductivity {W/m-K}
    530.000,                 !- Density {kg/m3}
    900.00,                  !- Specific Heat {J/kg-K}
    0.9000000,               !- Thermal Absorptance
    0.600000,                !- Solar Absorptance
    0.600000;                !- Visible Absorptance

              ! Material layer names follow:

  Construction,
    LTWALL,                  !- Name
    WOOD SIDING-1,           !- Outside Layer
    FIBERGLASS QUILT-1,      !- Layer 2
    PLASTERBOARD-1;          !- Layer 3

  Material,
    TIMBER FLOORING,         !- Name
    Rough,                   !- Roughness
    0.02500,                 !- Thickness {m}
    0.14000,                 !- Conductivity {W/m-K}
    650.000,                 !- Density {kg/m3}
    1200.0,                  !- Specific Heat {J/kg-K}
    0.9000000,               !- Thermal Absorptance
    0.600000,                !- Solar Absorptance
    0.600000;                !- Visible Absorptance

  Material:NoMass,
    R-25 INSULATION,         !- Name
    Rough,                   !- Roughness
    25.075,                  !- Thermal Resistance {m2-K/W}
    0.9000000,               !- Thermal Absorptance
    0.600000,                !- Solar Absorptance
    0.600000;                !- Visible Absorptance

             ! Material layer names follow:

  Construction,
    LTFLOOR,                 !- Name
    R-25 INSULATION,         !- Outside Layer
    TIMBER FLOORING;         !- Layer 2

  Material,
    PLASTERBOARD-2,          !- Name
    Rough,                   !- Roughness
    0.01000,                 !- Thickness {m}
    0.16000,                 !- Conductivity {W/m-K}
    950.000,                 !- Density {kg/m3}
    840.00,                  !- Specific Heat {J/kg-K}
    0.9000000,               !- Thermal Absorptance
    0.600000,                !- Solar Absorptance
    0.600000;                !- Visible Absorptance

  Material,
    FIBERGLASS QUILT-2,      !- Name
    Rough,                   !- Roughness
    0.1118,                  !- Thickness {m}
    0.040,                   !- Conductivity {W/m-K}
    12.000,                  !- Density {kg/m3}
    840.00,                  !- Specific Heat {J/kg-K}
    0.9000000,               !- Thermal Absorptance
    0.600000,                !- Solar Absorptance
    0.600000;                !- Visible Absorptance

  Material,
    ROOF DECK,               !- Name
    Rough,                   !- Roughness
    0.01900,                 !- Thickness {m}
    0.14000,                 !- Conductivity {W/m-K}
    530.000,                 !- Density {kg/m3}
    900.00,                  !- Specific Heat {J/kg-K}
    0.9000000,               !- Thermal Absorptance
    0.600000,                !- Solar Absorptance
    0.600000;                !- Visible Absorptance

               ! Material layer names follow:

  Construction,
    LTROOF,                  !- Name
    ROOF DECK,               !- Outside Layer
    FIBERGLASS QUILT-2,      !- Layer 2
    PLASTERBOARD-2;          !- Layer 3

  WindowMaterial:Glazing,
    Glass Type 1,            !- Name
    SpectralAverage,         !- Optical Data Type
    ,                        !- Window Glass Spectral Data Set Name
    0.003175,                !- Thickness {m}
    0.86156,                 !- Solar Transmittance at Normal Incidence
    0.07846,                 !- Front Side Solar Reflectance at Normal Incidence
    0.07846,                 !- Back Side Solar Reflectance at Normal Incidence
    0.91325,                 !- Visible Transmittance at Normal Incidence
    0.08200,                 !- Front Side Visible Reflectance at Normal Incidence
    0.08200,                 !- Back Side Visible Reflectance at Normal Incidence
    0.0,                     !- Infrared Transmittance at Normal Incidence
    0.84,                    !- Front Side Infrared Hemispherical Emissivity
    0.84,                    !- Back Side Infrared Hemispherical Emissivity
    1.06;                    !- Conductivity {W/m-K}

  WindowMaterial:Gas,
    Air Space Resistance,    !- Name
    AIR,                     !- Gas Type
    0.013;                   !- Thickness {m}

!         0.,       !N2 [Density at 273K {kg/m3}] Used for type=CUSTOM
!         0.,       !N3 [Density temperature derivative {kg/m3-K}] Used for type=CUSTOM
!         0.,       !N4 [Conductivity {W/m-K}] Used for type=CUSTOM
!         0.,       !N5 [Conductivity temperature derivative {W/m-K2}] Used for type=CUSTOM
!         0.,       !N6 [Viscosity {kg/ms}] Used for type=CUSTOM
!         0.,       !N7 [Viscosity temperature derivative {kg/m-s-K}] Used for type=CUSTOM
!         0.,       !N8 [Prandtl number at 273K] Used for type=CUSTOM
!         0.;       !N9 [Prandtl number temperature derivative {1/K}] Used for type=CUSTOM
               ! Material layer names follow:

  Construction,
    Double Pane Window,      !- Name
    Glass Type 1,            !- Outside Layer
    Air Space Resistance,    !- Layer 2
    Glass Type 1;            !- Layer 3

  Site:GroundTemperature:BuildingSurface,10.0,10.0,10.0,10.0,10.0,10.0,10.0,10.0,10.0,10.0,10.0,10.0;

  Site:GroundReflectance,0.2,0.2,0.2,0.2,0.2,0.2,0.2,0.2,0.2,0.2,0.2,0.2;

  Timestep,4;

  SurfaceConvectionAlgorithm:Inside,TARP;

  SurfaceConvectionAlgorithm:Outside,DOE-2;

  ShadowCalculation,
    PolygonClipping,         !- Shading Calculation Method
    Periodic,                !- Shading Calculation Update Frequency Method
    1;                       !- Shading Calculation Update Frequency

  Building,
    BESTEST Case 600,        !- Name
    0.0000000E+00,           !- North Axis {deg}
    Country,                 !- Terrain
    3.9999999E-02,           !- Loads Convergence Tolerance Value {W}
    4.0000002E-03,           !- Temperature Convergence Tolerance Value {deltaC}
    FullInteriorAndExterior, !- Solar Distribution
    ,                        !- Maximum Number of Warmup Days
    6;                       !- Minimum Number of Warmup Days

  Zone,
    ZONE ONE,                !- Name
    0.0000000E+00,           !- Direction of Relative North {deg}
    0.0000000E+00,           !- X Origin {m}
    0.0000000E+00,           !- Y Origin {m}
    0.0000000E+00,           !- Z Origin {m}
    1,                       !- Type
    1,                       !- Multiplier
    2.7000,                  !- Ceiling Height {m}
    129.6;                   !- Volume {m3}

  ! ZoneCapacitanceMultiplier,1;

  GlobalGeometryRules,
    UpperLeftCorner,         !- Starting Vertex Position
    Counterclockwise,        !- Vertex Entry Direction
    World;                   !- Coordinate System

  BuildingSurface:Detailed,
    ZONE SURFACE NORTH,      !- Name
    Wall,                    !- Surface Type
    LTWALL,                  !- Construction Name
    ZONE ONE,                !- Zone Name
    ,                        !- Space Name
    Outdoors,                !- Outside Boundary Condition
    ,                        !- Outside Boundary Condition Object
    SunExposed,              !- Sun Exposure
    WindExposed,             !- Wind Exposure
    0.5000000,               !- View Factor to Ground
    4,                       !- Number of Vertices
    8.000000,6.000000,2.700000,  !- X,Y,Z ==> Vertex 1 {m}
    8.000000,6.000000,0.0000000E+00,  !- X,Y,Z ==> Vertex 2 {m}
    0.0000000E+00,6.000000,0.0000000E+00,  !- X,Y,Z ==> Vertex 3 {m}
    0.0000000E+00,6.000000,2.700000;  !- X,Y,Z ==> Vertex 4 {m}

  BuildingSurface:Detailed,
    ZONE SURFACE EAST,       !- Name
    Wall,                    !- Surface Type
    LTWALL,                  !- Construction Name
    ZONE ONE,                !- Zone Name
    ,                        !- Space Name
    Outdoors,                !- Outside Boundary Condition
    ,                        !- Outside Boundary Condition Object
    SunExposed,              !- Sun Exposure
    WindExposed,             !- Wind Exposure
    0.5000000,               !- View Factor to Ground
    4,                       !- Number of Vertices
    8.000000,0.0000000E+00,2.700000,  !- X,Y,Z ==> Vertex 1 {m}
    8.000000,0.0000000E+00,0.0000000E+00,  !- X,Y,Z ==> Vertex 2 {m}
    8.000000,6.000000,0.0000000E+00,  !- X,Y,Z ==> Vertex 3 {m}
    8.000000,6.000000,2.700000;  !- X,Y,Z ==> Vertex 4 {m}

  BuildingSurface:Detailed,
    ZONE SURFACE SOUTH,      !- Name
    Wall,                    !- Surface Type
    LTWALL,                  !- Construction Name
    ZONE ONE,                !- Zone Name
    ,                        !- Space Name
    Outdoors,                !- Outside Boundary Condition
    ,                        !- Outside Boundary Condition Object
    SunExposed,              !- Sun Exposure
    WindExposed,             !- Wind Exposure
    0.5000000,               !- View Factor to Ground
    4,                       !- Number of Vertices
    0.0000000E+00,0.0000000E+00,2.700000,  !- X,Y,Z ==> Vertex 1 {m}
    0.0000000E+00,0.0000000E+00,0.0000000E+00,  !- X,Y,Z ==> Vertex 2 {m}
    8.000000,0.0000000E+00,0.0000000E+00,  !- X,Y,Z ==> Vertex 3 {m}
    8.000000,0.0000000E+00,2.700000;  !- X,Y,Z ==> Vertex 4 {m}

  FenestrationSurface:Detailed,
    ZONE SUBSURFACE 1,       !- Name
    Window,                  !- Surface Type
    DOUBLE PANE WINDOW,      !- Construction Name
    ZONE SURFACE SOUTH,      !- Building Surface Name
    ,                        !- Outside Boundary Condition Object
    0.5000000,               !- View Factor to Ground
    ,                        !- Frame and Divider Name
    1,                       !- Multiplier
    4,                       !- Number of Vertices
    0.5000000,0.0000000E+00,2.200000,  !- X,Y,Z ==> Vertex 1 {m}
    0.5000000,0.0000000E+00,0.2000000,  !- X,Y,Z ==> Vertex 2 {m}
    3.500000,0.0000000E+00,0.2000000,  !- X,Y,Z ==> Vertex 3 {m}
    3.500000,0.0000000E+00,2.200000;  !- X,Y,Z ==> Vertex 4 {m}

  FenestrationSurface:Detailed,
    ZONE SUBSURFACE 2,       !- Name
    Window,                  !- Surface Type
    DOUBLE PANE WINDOW,      !- Construction Name
    ZONE SURFACE SOUTH,      !- Building Surface Name
    ,                        !- Outside Boundary Condition Object
    0.5000000,               !- View Factor to Ground
    ,                        !- Frame and Divider Name
    1,                       !- Multiplier
    4,                       !- Number of Vertices
    4.500000,0.0000000E+00,2.200000,  !- X,Y,Z ==> Vertex 1 {m}
    4.500000,0.0000000E+00,0.2000000,  !- X,Y,Z ==> Vertex 2 {m}
    7.500000,0.0000000E+00,0.2000000,  !- X,Y,Z ==> Vertex 3 {m}
    7.500000,0.0000000E+00,2.200000;  !- X,Y,Z ==> Vertex 4 {m}

  BuildingSurface:Detailed,
    ZONE SURFACE WEST,       !- Name
    Wall,                    !- Surface Type
    LTWALL,                  !- Construction Name
    ZONE ONE,                !- Zone Name
    ,                        !- Space Name
    Outdoors,                !- Outside Boundary Condition
    ,                        !- Outside Boundary Condition Object
    SunExposed,              !- Sun Exposure
    WindExposed,             !- Wind Exposure
    0.5000000,               !- View Factor to Ground
    4,                       !- Number of Vertices
    0.0000000E+00,6.000000,2.700000,  !- X,Y,Z ==> Vertex 1 {m}
    0.0000000E+00,6.000000,0.0000000E+00,  !- X,Y,Z ==> Vertex 2 {m}
    0.0000000E+00,0.0000000E+00,0.0000000E+00,  !- X,Y,Z ==> Vertex 3 {m}
    0.0000000E+00,0.0000000E+00,2.700000;  !- X,Y,Z ==> Vertex 4 {m}

  BuildingSurface:Detailed,
    ZONE SURFACE FLOOR,      !- Name
    Floor,                   !- Surface Type
    LTFLOOR,                 !- Construction Name
    ZONE ONE,                !- Zone Name
    ,                        !- Space Name
    Ground,                  !- Outside Boundary Condition
    ,                        !- Outside Boundary Condition Object
    NoSun,                   !- Sun Exposure
    NoWind,                  !- Wind Exposure
    0.0000000E+00,           !- View Factor to Ground
    4,                       !- Number of Vertices
    0.0000000E+00,0.0000000E+00,0.0000000E+00,  !- X,Y,Z ==> Vertex 1 {m}
    0.0000000E+00,6.000000,0.0000000E+00,  !- X,Y,Z ==> Vertex 2 {m}
    8.000000,6.000000,0.0000000E+00,  !- X,Y,Z ==> Vertex 3 {m}
    8.000000,0.0000000E+00,0.0000000E+00;  !- X,Y,Z ==> Vertex 4 {m}

  BuildingSurface:Detailed,
    ZONE SURFACE ROOF,       !- Name
    Roof,                    !- Surface Type
    LTROOF,                  !- Construction Name
    ZONE ONE,                !- Zone Name
    ,                        !- Space Name
    Outdoors,                !- Outside Boundary Condition
    ,                        !- Outside Boundary Condition Object
    SunExposed,              !- Sun Exposure
    WindExposed,             !- Wind Exposure
    0.0000000E+00,           !- View Factor to Ground
    4,                       !- Number of Vertices
    0.0000000E+00,6.000000,2.700000,  !- X,Y,Z ==> Vertex 1 {m}
    0.0000000E+00,0.0000000E+00,2.700000,  !- X,Y,Z ==> Vertex 2 {m}
    8.000000,0.0000000E+00,2.700000,  !- X,Y,Z ==> Vertex 3 {m}
    8.000000,6.000000,2.700000;  !- X,Y,Z ==> Vertex 4 {m}

  OtherEquipment,
    ZONE ONE OthEq 1,        !- Name
    None,                    !- Fuel Type
    ZONE ONE,                !- Zone or ZoneList or Space or SpaceList Name
    Sch 1,                   !- Schedule Name
    EquipmentLevel,          !- Design Level Calculation Method
    200.0,                   !- Design Level {W}
    ,                        !- Power per Zone Floor Area {W/m2}
    ,                        !- Power per Person {W/person}
    0.000,                   !- Fraction Latent
    0.600,                   !- Fraction Radiant
    0.000;                   !- Fraction Lost

  ScheduleTypeLimits,
    Fraction,                !- Name
    0.0,                     !- Lower Limit Value
    1.0,                     !- Upper Limit Value
    Continuous;              !- Numeric Type

  Schedule:Day:Hourly,
    Day Sch 1,               !- Name
    Fraction,                !- Schedule Type Limits Name
    1,                       !- Hour 1
    1,                       !- Hour 2
    1,                       !- Hour 3
    1,                       !- Hour 4
    1,                       !- Hour 5
    1,                       !- Hour 6
    1,                       !- Hour 7
    1,                       !- Hour 8
    1,                       !- Hour 9
    1,                       !- Hour 10
    1,                       !- Hour 11
    1,                       !- Hour 12
    1,                       !- Hour 13
    1,                       !- Hour 14
    1,                       !- Hour 15
    1,                       !- Hour 16
    1,                       !- Hour 17
    1,                       !- Hour 18
    1,                       !- Hour 19
    1,                       !- Hour 20
    1,                       !- Hour 21
    1,                       !- Hour 22
    1,                       !- Hour 23
    1;                       !- Hour 24

  Schedule:Week:Daily,
    Week Sch 1,              !- Name
    Day Sch 1,               !- Sunday Schedule:Day Name
    Day Sch 1,               !- Monday Schedule:Day Name
    Day Sch 1,               !- Tuesday Schedule:Day Name
    Day Sch 1,               !- Wednesday Schedule:Day Name
    Day Sch 1,               !- Thursday Schedule:Day Name
    Day Sch 1,               !- Friday Schedule:Day Name
    Day Sch 1,               !- Saturday Schedule:Day Name
    Day Sch 1,               !- Holiday Schedule:Day Name
    Day Sch 1,               !- SummerDesignDay Schedule:Day Name
    Day Sch 1,               !- WinterDesignDay Schedule:Day Name
    Day Sch 1,               !- CustomDay1 Schedule:Day Name
    Day Sch 1;               !- CustomDay2 Schedule:Day Name

  Schedule:Year,
    Sch 1,                   !- Name
    Fraction,                !- Schedule Type Limits Name
    Week Sch 1,              !- Schedule:Week Name 1
    1,                       !- Start Month 1
    1,                       !- Start Day 1
    12,                      !- End Month 1
    31;                      !- End Day 1

  ZoneInfiltration:DesignFlowRate,
    ZONE ONE Infil 1,        !- Name
    ZONE ONE,                !- Zone or ZoneList Name
    Sch 1,                   !- Schedule Name
    Flow/Zone,               !- Design Flow Rate Calculation Method
    0.018,                   !- Design Flow Rate {m3/s}
    ,                        !- Flow per Zone Floor Area {m3/s-m2}
    ,                        !- Flow per Exterior Surface Area {m3/s-m2}
    ,                        !- Air Changes per Hour {1/hr}
    1.0,                     !- Constant Term Coefficient
    0.0,                     !- Temperature Term Coefficient
    0.0,                     !- Velocity Term Coefficient
    0.0;                     !- Velocity Squared Term Coefficient

!     What follows is RHH model for BESTEST

  ZoneControl:Thermostat,
    Zone 1 Thermostat,       !- Name
    ZONE ONE,                !- Zone or ZoneList Name
    Zone Control Type Sched, !- Control Type Schedule Name
    ThermostatSetpoint:DualSetpoint,  !- Control 1 Object Type
    Heating Cooling Setpoints;  !- Control 1 Name

  ThermostatSetpoint:DualSetpoint,
    Heating Cooling Setpoints,  !- Name
    Heating Setpoints,       !- Heating Setpoint Temperature Schedule Name
    Cooling Setpoints;       !- Cooling Setpoint Temperature Schedule Name

  ScheduleTypeLimits,
    Temperature,             !- Name
    -60,                     !- Lower Limit Value
    200,                     !- Upper Limit Value
    Continuous;              !- Numeric Type

          ! Next Arguments represent each hour of day

  Schedule:Day:Hourly,
    Zone Heating Setpoint All Days,  !- Name
    Temperature,             !- Schedule Type Limits Name
    20.,                     !- Hour 1
    20.,                     !- Hour 2
    20.,                     !- Hour 3
    20.,                     !- Hour 4
    20.,                     !- Hour 5
    20.,                     !- Hour 6
    20.,                     !- Hour 7
    20.,                     !- Hour 8
    20.,                     !- Hour 9
    20.,                     !- Hour 10
    20.,                     !- Hour 11
    20.,                     !- Hour 12
    20.,                     !- Hour 13
    20.,                     !- Hour 14
    20.,                     !- Hour 15
    20.,                     !- Hour 16
    20.,                     !- Hour 17
    20.,                     !- Hour 18
    20.,                     !- Hour 19
    20.,                     !- Hour 20
    20.,                     !- Hour 21
    20.,                     !- Hour 22
    20.,                     !- Hour 23
    20.;                     !- Hour 24

          ! Next arguments are names (DaySchedules) for the days

  Schedule:Week:Daily,
    Zone Heating Setpoint All Weeks,  !- Name
    Zone Heating Setpoint All Days,  !- Sunday Schedule:Day Name
    Zone Heating Setpoint All Days,  !- Monday Schedule:Day Name
    Zone Heating Setpoint All Days,  !- Tuesday Schedule:Day Name
    Zone Heating Setpoint All Days,  !- Wednesday Schedule:Day Name
    Zone Heating Setpoint All Days,  !- Thursday Schedule:Day Name
    Zone Heating Setpoint All Days,  !- Friday Schedule:Day Name
    Zone Heating Setpoint All Days,  !- Saturday Schedule:Day Name
    Zone Heating Setpoint All Days,  !- Holiday Schedule:Day Name
    Zone Heating Setpoint All Days,  !- SummerDesignDay Schedule:Day Name
    Zone Heating Setpoint All Days,  !- WinterDesignDay Schedule:Day Name
    Zone Heating Setpoint All Days,  !- CustomDay1 Schedule:Day Name
    Zone Heating Setpoint All Days;  !- CustomDay2 Schedule:Day Name

          ! remaining arguments are grouped [Name (WeekSchedules),startmonth,startday,endmonth,endday]
          ! 18 periods allowed

  Schedule:Year,
    Heating Setpoints,       !- Name
    Temperature,             !- Schedule Type Limits Name
    Zone Heating Setpoint All Weeks,  !- Schedule:Week Name 1
    1,                       !- Start Month 1
    1,                       !- Start Day 1
    12,                      !- End Month 1
    31;                      !- End Day 1

          ! Next Arguments represent each hour of day

  Schedule:Day:Hourly,
    Zone Cooling Setpoint All Days,  !- Name
    Temperature,             !- Schedule Type Limits Name
    27.,                     !- Hour 1
    27.,                     !- Hour 2
    27.,                     !- Hour 3
    27.,                     !- Hour 4
    27.,                     !- Hour 5
    27.,                     !- Hour 6
    27.,                     !- Hour 7
    27.,                     !- Hour 8
    27.,                     !- Hour 9
    27.,                     !- Hour 10
    27.,                     !- Hour 11
    27.,                     !- Hour 12
    27.,                     !- Hour 13
    27.,                     !- Hour 14
    27.,                     !- Hour 15
    27.,                     !- Hour 16
    27.,                     !- Hour 17
    27.,                     !- Hour 18
    27.,                     !- Hour 19
    27.,                     !- Hour 20
    27.,                     !- Hour 21
    27.,                     !- Hour 22
    27.,                     !- Hour 23
    27.;                     !- Hour 24

          ! Next arguments are names (DaySchedules) for the days

  Schedule:Week:Daily,
    Zone Cooling Setpoint All Weeks,  !- Name
    Zone Cooling Setpoint All Days,  !- Sunday Schedule:Day Name
    Zone Cooling Setpoint All Days,  !- Monday Schedule:Day Name
    Zone Cooling Setpoint All Days,  !- Tuesday Schedule:Day Name
    Zone Cooling Setpoint All Days,  !- Wednesday Schedule:Day Name
    Zone Cooling Setpoint All Days,  !- Thursday Schedule:Day Name
    Zone Cooling Setpoint All Days,  !- Friday Schedule:Day Name
    Zone Cooling Setpoint All Days,  !- Saturday Schedule:Day Name
    Zone Cooling Setpoint All Days,  !- Holiday Schedule:Day Name
    Zone Cooling Setpoint All Days,  !- SummerDesignDay Schedule:Day Name
    Zone Cooling Setpoint All Days,  !- WinterDesignDay Schedule:Day Name
    Zone Cooling Setpoint All Days,  !- CustomDay1 Schedule:Day Name
    Zone Cooling Setpoint All Days;  !- CustomDay2 Schedule:Day Name

          ! remaining arguments are grouped [Name (WeekSchedules),startmonth,startday,endmonth,endday]
          ! 18 periods allowed

  Schedule:Year,
    Cooling Setpoints,       !- Name
    Temperature,             !- Schedule Type Limits Name
    Zone Cooling Setpoint All Weeks,  !- Schedule:Week Name 1
    1,                       !- Start Month 1
    1,                       !- Start Day 1
    12,                      !- End Month 1
    31;                      !- End Day 1

  ScheduleTypeLimits,
    Control Type,            !- Name
    0,                       !- Lower Limit Value
    4,                       !- Upper Limit Value
    Discrete;                !- Numeric Type

          ! Next Arguments represent each hour of day

  Schedule:Day:Hourly,
    Control Type All Days,   !- Name
    Control Type,            !- Schedule Type Limits Name
    4,                       !- Hour 1
    4,                       !- Hour 2
    4,                       !- Hour 3
    4,                       !- Hour 4
    4,                       !- Hour 5
    4,                       !- Hour 6
    4,                       !- Hour 7
    4,                       !- Hour 8
    4,                       !- Hour 9
    4,                       !- Hour 10
    4,                       !- Hour 11
    4,                       !- Hour 12
    4,                       !- Hour 13
    4,                       !- Hour 14
    4,                       !- Hour 15
    4,                       !- Hour 16
    4,                       !- Hour 17
    4,                       !- Hour 18
    4,                       !- Hour 19
    4,                       !- Hour 20
    4,                       !- Hour 21
    4,                       !- Hour 22
    4,                       !- Hour 23
    4;                       !- Hour 24

          ! Next arguments are names (DaySchedules) for the days

  Schedule:Week:Daily,
    Control Type All Weeks,  !- Name
    Control Type All Days,   !- Sunday Schedule:Day Name
    Control Type All Days,   !- Monday Schedule:Day Name
    Control Type All Days,   !- Tuesday Schedule:Day Name
    Control Type All Days,   !- Wednesday Schedule:Day Name
    Control Type All Days,   !- Thursday Schedule:Day Name
    Control Type All Days,   !- Friday Schedule:Day Name
    Control Type All Days,   !- Saturday Schedule:Day Name
    Control Type All Days,   !- Holiday Schedule:Day Name
    Control Type All Days,   !- SummerDesignDay Schedule:Day Name
    Control Type All Days,   !- WinterDesignDay Schedule:Day Name
    Control Type All Days,   !- CustomDay1 Schedule:Day Name
    Control Type All Days;   !- CustomDay2 Schedule:Day Name

          ! remaining arguments are grouped [Name (WeekSchedules),startmonth,startday,endmonth,endday]
          ! 18 periods allowed

  Schedule:Year,
    Zone Control Type Sched, !- Name
    Control Type,            !- Schedule Type Limits Name
    Control Type All Weeks,  !- Schedule:Week Name 1
    1,                       !- Start Month 1
    1,                       !- Start Day 1
    12,                      !- End Month 1